# generated using pymatgen
data_NaSe4
_symmetry_space_group_name_H-M   'P 1'
_cell_length_a   4.27479887
_cell_length_b   4.27479887
_cell_length_c   4.27479887
_cell_angle_alpha   90.00000000
_cell_angle_beta   90.00000000
_cell_angle_gamma   90.00000000
_symmetry_Int_Tables_number   1
_chemical_formula_structural   NaSe4
_chemical_formula_sum   'Na1 Se4'
_cell_volume   78.11727007
_cell_formula_units_Z   1
loop_
 _symmetry_equiv_pos_site_id
 _symmetry_equiv_pos_as_xyz
  1  'x, y, z'
loop_
 _atom_site_type_symbol
 _atom_site_label
 _atom_site_symmetry_multiplicity
 _atom_site_fract_x
 _atom_site_fract_y
 _atom_site_fract_z
 _atom_site_occupancy
  Se  Se0  1  0.00000000  0.00000000  0.00000000  1
  Se  Se1  1  0.50000000  0.49999991  0.50000000  1
  Na  Na2  1  0.00000004  0.49999994  0.50000000  1
  Se  Se3  1  0.49999997  0.99999994  0.50000000  1
  Se  Se4  1  0.50000000  0.49999994  0.00000002  1
